CRYSTAL
# Primitive lattice vectors in Angstrom
PRIMVEC
 -2.11250000000000 2.11250000000000 2.11250000000000
 2.11250000000000 -2.11250000000000 2.11250000000000
 2.11250000000000 2.11250000000000 -2.11250000000000
# Cartesian coordinates in Angstrom.
PRIMCOORD
 1 1
Na     0.00000000000000     0.00000000000000     0.00000000000000